blazegraph/ieee8500_base.glm
object regulator_configuration {
  name "rcon_VREG4";
  connect_type WYE_WYE;
	Control MANUAL; // OUTPUT_VOLTAGE;
  // use these for OUTPUT_VOLTAGE mode
  // band_center 7500.000000;
  // band_width 120.000000;
  // use these for LINE_DROP_COMP mode
  // band_center 125.000000;
  // band_width 2.000000;
  // transducer ratios only apply to LINE_DROP_COMP mode
  current_transducer_ratio 300.000000;
  power_transducer_ratio 60.000000;
  dwell_time 15.000000;
  raise_taps 16;
  lower_taps 16;
  regulation 0.100000;
  Type B;
  compensator_r_setting_A 0.000000;
  compensator_x_setting_A 0.000000;
  // comment out the manual tap setting if using automatic control
  tap_pos_A 11;
  compensator_r_setting_B 0.000000;
  compensator_x_setting_B 0.000000;
  // comment out the manual tap setting if using automatic control
  tap_pos_B 11;
  compensator_r_setting_C 0.000000;
  compensator_x_setting_C 0.000000;
  // comment out the manual tap setting if using automatic control
  tap_pos_C 4;
}
object regulator {
  name "reg_VREG4";
  from "nd_regxfmr_190-7361";
  to "nd_190-7361";
  phases ABC;
  configuration "rcon_VREG4";
}
object regulator_configuration {
  name "rcon_VREG2";
  connect_type WYE_WYE;
	Control MANUAL; // OUTPUT_VOLTAGE;
  // use these for OUTPUT_VOLTAGE mode
  // band_center 7500.000000;
  // band_width 120.000000;
  // use these for LINE_DROP_COMP mode
  // band_center 125.000000;
  // band_width 2.000000;
  // transducer ratios only apply to LINE_DROP_COMP mode
  current_transducer_ratio 300.000000;
  power_transducer_ratio 60.000000;
  dwell_time 15.000000;
  raise_taps 16;
  lower_taps 16;
  regulation 0.100000;
  Type B;
  compensator_r_setting_A 0.000000;
  compensator_x_setting_A 0.000000;
  // comment out the manual tap setting if using automatic control
  tap_pos_A 9;
  compensator_r_setting_B 0.000000;
  compensator_x_setting_B 0.000000;
  // comment out the manual tap setting if using automatic control
  tap_pos_B 6;
  compensator_r_setting_C 0.000000;
  compensator_x_setting_C 0.000000;
  // comment out the manual tap setting if using automatic control
  tap_pos_C 1;
}
object regulator {
  name "reg_VREG2";
  from "nd_regxfmr_190-8593";
  to "nd_190-8593";
  phases ABC;
  configuration "rcon_VREG2";
}
object regulator_configuration {
  name "rcon_VREG3";
  connect_type WYE_WYE;
	Control MANUAL; // OUTPUT_VOLTAGE;
  // use these for OUTPUT_VOLTAGE mode
  // band_center 7500.000000;
  // band_width 120.000000;
  // use these for LINE_DROP_COMP mode
  // band_center 125.000000;
  // band_width 2.000000;
  // transducer ratios only apply to LINE_DROP_COMP mode
  current_transducer_ratio 300.000000;
  power_transducer_ratio 60.000000;
  dwell_time 15.000000;
  raise_taps 16;
  lower_taps 16;
  regulation 0.100000;
  Type B;
  compensator_r_setting_A 0.000000;
  compensator_x_setting_A 0.000000;
  // comment out the manual tap setting if using automatic control
  tap_pos_A 16;
  compensator_r_setting_B 0.000000;
  compensator_x_setting_B 0.000000;
  // comment out the manual tap setting if using automatic control
  tap_pos_B 10;
  compensator_r_setting_C 0.000000;
  compensator_x_setting_C 0.000000;
  // comment out the manual tap setting if using automatic control
  tap_pos_C 1;
}
object regulator {
  name "reg_VREG3";
  from "nd_regxfmr_190-8581";
  to "nd_190-8581";
  phases ABC;
  configuration "rcon_VREG3";
}
object regulator_configuration {
  name "rcon_FEEDER_REG";
  connect_type WYE_WYE;
	Control MANUAL; // OUTPUT_VOLTAGE;
  // use these for OUTPUT_VOLTAGE mode
  // band_center 7590.000000;
  // band_width 120.000000;
  // use these for LINE_DROP_COMP mode
  // band_center 126.500000;
  // band_width 2.000000;
  // transducer ratios only apply to LINE_DROP_COMP mode
  current_transducer_ratio 300.000000;
  power_transducer_ratio 60.000000;
  dwell_time 15.000000;
  raise_taps 16;
  lower_taps 16;
  regulation 0.100000;
  Type B;
  compensator_r_setting_A 0.000000;
  compensator_x_setting_A 0.000000;
  // comment out the manual tap setting if using automatic control
  tap_pos_A 2;
  compensator_r_setting_B 0.000000;
  compensator_x_setting_B 0.000000;
  // comment out the manual tap setting if using automatic control
  tap_pos_B 2;
  compensator_r_setting_C 0.000000;
  compensator_x_setting_C 0.000000;
  // comment out the manual tap setting if using automatic control
  tap_pos_C 1;
}
object regulator {
  name "reg_FEEDER_REG";
  from "nd_regxfmr_hvmv_sub_lsb";
  to "nd__hvmv_sub_lsb";
  phases ABC;
  configuration "rcon_FEEDER_REG";
}
object line_configuration {
  name "lcon_3ph_h-397_acsr397_acsr397_acsr4_wpal_ABC";
  z11 0.485761+1.28182j;
  c11 14.7027;
  z12 0.234266+0.659667j;
  c12 -3.5026;
  z13 0.228656+0.721284j;
  c13 -5.0800;
  z21 0.227043+0.692596j;
  c21 -4.2933;
  z22 0.474882+1.29077j;
  c22 15.4852;
  z23 0.228656+0.721284j;
  c23 -5.0800;
  z31 0.234266+0.659667j;
  c31 -3.5026;
  z32 0.228656+0.721284j;
  c32 -5.0800;
  z33 0.489138+1.27907j;
  c33 15.1789;
}
object line_configuration {
  name "lcon_cap_3a_PUZ_A";
  z11 1609.34+1609.34j;
  c11 0.0000;
}
object line_configuration {
  name "lcon_3ph_h-4_acsr2_acsr2_acsr4_wpal_ABC";
  z11 2.71377+1.48859j;
  c11 12.2793;
  z12 0.234266+0.659667j;
  c12 -2.7418;
  z13 0.228656+0.721284j;
  c13 -4.0015;
  z21 0.227043+0.692596j;
  c21 -3.2973;
  z22 1.81573+1.50275j;
  c22 13.1711;
  z23 0.228656+0.721284j;
  c23 -4.0015;
  z31 0.234266+0.659667j;
  c31 -2.7418;
  z32 0.228656+0.721284j;
  c32 -4.0015;
  z33 1.82999+1.49105j;
  c33 12.9857;
}
object line_configuration {
  name "lcon_1ph-4_acsrxx1/0_tpx_A";
  z11 2.54814+1.28458j;
  c11 10.1754;
}
object line_configuration {
  name "lcon_1ph-x4_wpalx4_wpal_B";
  z22 2.62938+1.44331j;
  c22 10.1754;
}
object line_configuration {
  name "lcon_1ph-x4_wpalx1/0_tpx_B";
  z22 2.47826+1.22732j;
  c22 10.1754;
}
object line_configuration {
  name "lcon_cap_2c_PUZ_C";
  z33 1609.34+1609.34j;
  c33 0.0000;
}
object line_configuration {
  name "lcon_cap_1c_PUZ_C";
  z33 1609.34+1609.34j;
  c33 0.0000;
}
object line_configuration {
  name "lcon_3ph_h-4_wpal4_wpal4_wpal1/0_tpx_ABC";
  z11 2.48030+1.19143j;
  c11 12.2323;
  z12 0.0692292+0.416991j;
  c12 -2.6843;
  z13 0.0683844+0.487820j;
  c13 -3.7415;
  z21 0.0681689+0.461809j;
  c21 -3.2146;
  z22 2.47876+1.21826j;
  c22 12.6944;
  z23 0.0683844+0.487820j;
  c23 -3.7415;
  z31 0.0692292+0.416991j;
  c31 -2.6843;
  z32 0.0683844+0.487820j;
  c32 -3.7415;
  z33 2.48080+1.18309j;
  c33 12.5210;
}
object line_configuration {
  name "lcon_3ph_h-4_acsr4_acsr4_acsr4_wpal_ABC";
  z11 2.71377+1.48859j;
  c11 12.2323;
  z12 0.234266+0.659667j;
  c12 -2.6843;
  z13 0.228656+0.721284j;
  c13 -3.7415;
  z21 0.227043+0.692596j;
  c21 -3.2146;
  z22 2.70289+1.49754j;
  c22 12.6944;
  z23 0.228656+0.721284j;
  c23 -3.7415;
  z31 0.234266+0.659667j;
  c31 -2.6843;
  z32 0.228656+0.721284j;
  c32 -3.7415;
  z33 2.71715+1.48584j;
  c33 12.5210;
}
object line_configuration {
  name "lcon_3ph_h-2/0_acsr2/0_acsr2/0_acsr2_acsr_ABC";
  z11 1.06357+1.40004j;
  c11 13.4300;
  z12 0.228633+0.589205j;
  c12 -3.0779;
  z13 0.222923+0.653318j;
  c13 -4.3727;
  z21 0.221283+0.625357j;
  c21 -3.7272;
  z22 1.05251+1.41385j;
  c22 14.0347;
  z23 0.222923+0.653318j;
  c23 -4.3727;
  z31 0.228633+0.589205j;
  c31 -3.0779;
  z32 0.222923+0.653318j;
  c32 -4.3727;
  z33 1.06701+1.39578j;
  c33 13.8026;
}
object line_configuration {
  name "lcon_1ph-x4_wpalx2_acsr_B";
  z22 2.62347+1.38009j;
  c22 10.1754;
}
object line_configuration {
  name "lcon_1ph-xx6_wpal6_wpal_C";
  z33 4.02827+1.56898j;
  c33 9.9127;
}
object line_configuration {
  name "lcon_3ph_h-4_wpal4_wpal4_wpal4_acsr_ABC";
  z11 2.63931+1.43508j;
  c11 12.2323;
  z12 0.229603+0.663457j;
  c12 -2.6843;
  z13 0.224172+0.724960j;
  c13 -3.7415;
  z21 0.222611+0.696239j;
  c21 -3.2146;
  z22 2.62877+1.44382j;
  c22 12.6944;
  z23 0.224172+0.724960j;
  c23 -3.7415;
  z31 0.229603+0.663457j;
  c31 -2.6843;
  z32 0.224172+0.724960j;
  c32 -3.7415;
  z33 2.64258+1.43241j;
  c33 12.5210;
}
object line_configuration {
  name "lcon_1ph-x4_acsrx4_wpal_B";
  z22 2.69924+1.50057j;
  c22 10.1754;
}
object line_configuration {
  name "lcon_1ph-xx4_wpal4_wpal_C";
  z33 2.62938+1.44331j;
  c33 10.1754;
}
object line_configuration {
  name "lcon_cap_2b_PUZ_B";
  z22 1609.34+1609.34j;
  c22 0.0000;
}
object line_configuration {
  name "lcon_1ph-2_acsrxx4_wpal_A";
  z11 1.81207+1.50577j;
  c11 10.4538;
}
object line_configuration {
  name "lcon_1ph-x4_acsrx1/0_tpx_B";
  z22 2.54814+1.28458j;
  c22 10.1754;
}
object line_configuration {
  name "lcon_1ph-x2_acsrx1/0_tpx_B";
  z22 1.66096+1.28979j;
  c22 10.4538;
}
object line_configuration {
  name "lcon_1ph-x4_acsrx4_tpx_B";
  z22 2.69935+1.50000j;
  c22 10.1754;
}
object line_configuration {
  name "lcon_3ph_h-2_acsr2_acsr4_acsr4_acsr_ABC";
  z11 1.82200+1.49755j;
  c11 12.6667;
  z12 0.229603+0.663457j;
  c12 -2.7396;
  z13 0.224172+0.724960j;
  c13 -3.8462;
  z21 0.222611+0.696239j;
  c21 -3.4353;
  z22 1.81146+1.50628j;
  c22 13.1605;
  z23 0.224172+0.724960j;
  c23 -3.8462;
  z31 0.229603+0.663457j;
  c31 -2.7396;
  z32 0.224172+0.724960j;
  c32 -3.8462;
  z33 2.71244+1.48967j;
  c33 12.5779;
}
object line_configuration {
  name "lcon_3ph_h-397_acsr397_acsr397_acsr2/0_wpal_ABC";
  z11 0.434553+1.12006j;
  c11 14.7027;
  z12 0.182722+0.496114j;
  c12 -3.5026;
  z13 0.178230+0.563687j;
  c13 -5.0800;
  z21 0.176949+0.536732j;
  c21 -4.2933;
  z22 0.425887+1.14059j;
  c22 15.4852;
  z23 0.178230+0.563687j;
  c23 -5.0800;
  z31 0.182722+0.496114j;
  c31 -3.5026;
  z32 0.178230+0.563687j;
  c32 -5.0800;
  z33 0.437256+1.11370j;
  c33 15.1789;
}
object line_configuration {
  name "lcon_1ph-x4_acsrx1/0_3w_cs_B";
  z22 2.67450+1.35837j;
  c22 10.1754;
}
object line_configuration {
  name "lcon_1p_1/0_axnj_db_A";
  z11 1.54330+0.871099j;
  c11 41.7188;
}
object line_configuration {
  name "lcon_1p_1/0_axnj_db_B";
  z22 1.54330+0.871099j;
  c22 41.7188;
}
object line_configuration {
  name "lcon_1p_1/0_axnj_db_C";
  z33 1.54330+0.871099j;
  c33 41.7188;
}
object line_configuration {
  name "lcon_1ph-2_acsrxx4_acsr_A";
  z11 1.80792+1.50923j;
  c11 10.4538;
}
object line_configuration {
  name "lcon_1ph-xx4_acsr1/0_acsr_C";
  z33 2.66665+1.37642j;
  c33 10.1754;
}
object line_configuration {
  name "lcon_cap_2a_PUZ_A";
  z11 1609.34+1609.34j;
  c11 0.0000;
}
object line_configuration {
  name "lcon_1ph-2_acsrxx2_acsr_A";
  z11 1.80617+1.44256j;
  c11 10.4538;
}
object line_configuration {
  name "lcon_1ph-xx4_wpal4_acsr_C";
  z33 2.62523+1.44677j;
  c33 10.1754;
}
object line_configuration {
  name "lcon_1ph-4_acsrxx4_acsr_A";
  z11 2.69510+1.50403j;
  c11 10.1754;
}
object triplex_line_configuration {
  name "tcon_4/0triplex_12";
  z11 2.16454+0.880800j;
  z12 0.623542+0.673688j;
  z21 0.623542+0.673688j;
  z22 2.16454+0.880800j;
}
object line_configuration {
  name "lcon_1ph-2_acsrxx4/0_tpx_A";
  z11 1.72580+1.30031j;
  c11 10.4538;
}
object line_configuration {
  name "lcon_cap_3b_PUZ_B";
  z22 1609.34+1609.34j;
  c22 0.0000;
}
object line_configuration {
  name "lcon_1ph-x4_acsrx4_dpx_B";
  z22 2.69935+1.50000j;
  c22 10.1754;
}
object line_configuration {
  name "lcon_1ph-xx4_acsr4_tpx_C";
  z33 2.69935+1.50000j;
  c33 10.1754;
}
object line_configuration {
  name "lcon_1ph-4_acsrxx6_wpal_A";
  z11 2.67516+1.55656j;
  c11 10.1754;
}
object line_configuration {
  name "lcon_cap_3c_PUZ_C";
  z33 1609.34+1609.34j;
  c33 0.0000;
}
object line_configuration {
  name "lcon_1ph-x4_acsrx2_wpal_B";
  z22 2.69459+1.44326j;
  c22 10.1754;
}
object line_configuration {
  name "lcon_1ph-x4_wpalx4_acsr_B";
  z22 2.62523+1.44677j;
  c22 10.1754;
}
object line_configuration {
  name "lcon_1ph-xx4_acsr4_acsr_C";
  z33 2.69510+1.50403j;
  c33 10.1754;
}
object line_configuration {
  name "lcon_1ph-xx4_wpal1/0_tpx_C";
  z33 2.47826+1.22732j;
  c33 10.1754;
}
object triplex_line_configuration {
  name "tcon_750_triplex_12";
  z11 0.262666+0.146913j;
  z12 0.123666+0.0353481j;
  z21 0.123666+0.0353481j;
  z22 0.262666+0.146913j;
}
object line_configuration {
  name "lcon_2ph_h-2_acsrx2_acsr2_acsr_AC";
  z11 1.82094+1.42409j;
  c11 11.8078;
  z13 0.228633+0.589205j;
  c13 -3.8593;
  z31 0.228633+0.589205j;
  c31 -3.8593;
  z33 1.82438+1.41983j;
  c33 11.8078;
}
object line_configuration {
  name "lcon_3ph_h-4_wpal4_wpal4_wpal4_wpal_ABC";
  z11 2.64391+1.43133j;
  c11 12.2323;
  z12 0.234266+0.659667j;
  c12 -2.6843;
  z13 0.228656+0.721284j;
  c13 -3.7415;
  z21 0.227043+0.692596j;
  c21 -3.2146;
  z22 2.63303+1.44028j;
  c22 12.6944;
  z23 0.228656+0.721284j;
  c23 -3.7415;
  z31 0.234266+0.659667j;
  c31 -2.6843;
  z32 0.228656+0.721284j;
  c32 -3.7415;
  z33 2.64729+1.42858j;
  c33 12.5210;
}
object line_configuration {
  name "lcon_1ph-2_acsrxx1/0_tpx_A";
  z11 1.66096+1.28979j;
  c11 10.4538;
}
object line_configuration {
  name "lcon_3ph_h-4_acsr2_acsr2_acsr4_acsr_ABC";
  z11 2.70917+1.49234j;
  c11 12.2793;
  z12 0.229603+0.663457j;
  c12 -2.7418;
  z13 0.224172+0.724960j;
  c13 -4.0015;
  z21 0.222611+0.696239j;
  c21 -3.2973;
  z22 1.81146+1.50628j;
  c22 13.1711;
  z23 0.224172+0.724960j;
  c23 -4.0015;
  z31 0.229603+0.663457j;
  c31 -2.7418;
  z32 0.224172+0.724960j;
  c32 -4.0015;
  z33 1.82527+1.49487j;
  c33 12.9857;
}
object line_configuration {
  name "lcon_1ph-x2_acsrx1/0_3w_cs_B";
  z22 1.78732+1.36357j;
  c22 10.4538;
}
object line_configuration {
  name "lcon_3ph_h-2/0_acsr2/0_acsr2/0_acsr4_acsr_ABC";
  z11 1.06462+1.47351j;
  c11 13.4300;
  z12 0.229603+0.663457j;
  c12 -3.0779;
  z13 0.224172+0.724960j;
  c13 -4.3727;
  z21 0.222611+0.696239j;
  c21 -3.7272;
  z22 1.05409+1.48224j;
  c22 14.0347;
  z23 0.224172+0.724960j;
  c23 -4.3727;
  z31 0.229603+0.663457j;
  c31 -3.0779;
  z32 0.224172+0.724960j;
  c32 -4.3727;
  z33 1.06789+1.47083j;
  c33 13.8026;
}
object line_configuration {
  name "lcon_1ph-4_wpalxx2_wpal_A";
  z11 2.62471+1.38600j;
  c11 10.1754;
}
object line_configuration {
  name "lcon_1ph-x2_acsrx4_tpx_B";
  z22 1.81217+1.50521j;
  c22 10.4538;
}
object line_configuration {
  name "lcon_1ph-x2_acsrx4_acsr_B";
  z22 1.80792+1.50923j;
  c22 10.4538;
}
object line_configuration {
  name "lcon_1ph-4_wpalxx4_acsr_A";
  z11 2.62523+1.44677j;
  c11 10.1754;
}
object line_configuration {
  name "lcon_1ph-2_wpalxx2_wpal_A";
  z11 1.87057+1.44847j;
  c11 10.4538;
}
object line_configuration {
  name "lcon_3ph_h-2/0_acsr2/0_acsr2/0_acsr2/0_acsr_ABC";
  z11 1.01802+1.30800j;
  c11 13.4300;
  z12 0.182722+0.496114j;
  c12 -3.0779;
  z13 0.178230+0.563687j;
  c13 -4.3727;
  z21 0.176949+0.536732j;
  c21 -3.7272;
  z22 1.00935+1.32852j;
  c22 14.0347;
  z23 0.178230+0.563687j;
  c23 -4.3727;
  z31 0.182722+0.496114j;
  c31 -3.0779;
  z32 0.178230+0.563687j;
  c32 -4.3727;
  z33 1.02072+1.30164j;
  c33 13.8026;
}
object line_configuration {
  name "lcon_1ph-4_acsrxx2_acsr_A";
  z11 2.69335+1.43736j;
  c11 10.1754;
}
object line_configuration {
  name "lcon_1ph-x4_acsrx4_acsr_B";
  z22 2.69510+1.50403j;
  c22 10.1754;
}
object line_configuration {
  name "lcon_3ph_h-4_acsr4_acsr4_acsr4_acsr_ABC";
  z11 2.70917+1.49234j;
  c11 12.2323;
  z12 0.229603+0.663457j;
  c12 -2.6843;
  z13 0.224172+0.724960j;
  c13 -3.7415;
  z21 0.222611+0.696239j;
  c21 -3.2146;
  z22 2.69864+1.50108j;
  c22 12.6944;
  z23 0.224172+0.724960j;
  c23 -3.7415;
  z31 0.229603+0.663457j;
  c31 -2.6843;
  z32 0.224172+0.724960j;
  c32 -3.7415;
  z33 2.71244+1.48967j;
  c33 12.5210;
}
object line_configuration {
  name "lcon_1ph-xx2_acsr4_dpx_C";
  z33 1.81217+1.50521j;
  c33 10.4538;
}
object line_configuration {
  name "lcon_1ph-x2_acsrx2_acsr_B";
  z22 1.80617+1.44256j;
  c22 10.4538;
}
object line_configuration {
  name "lcon_1ph-4_acsrxx4_wpal_A";
  z11 2.69924+1.50057j;
  c11 10.1754;
}
object line_configuration {
  name "lcon_cap_1b_PUZ_B";
  z22 1609.34+1609.34j;
  c22 0.0000;
}
object line_configuration {
  name "lcon_1ph-xx4_acsr1/0_tpx_C";
  z33 2.54814+1.28458j;
  c33 10.1754;
}
object line_configuration {
  name "lcon_1ph-xx4_acsr2_acsr_C";
  z33 2.69335+1.43736j;
  c33 10.1754;
}
object line_configuration {
  name "lcon_1ph-4_wpalxx1/0_tpx_A";
  z11 2.47826+1.22732j;
  c11 10.1754;
}
object line_configuration {
  name "lcon_3ph_h-397_acsr397_acsr397_acsr397_acsr_ABC";
  z11 0.344660+1.02186j;
  c11 14.7027;
  z12 0.0919959+0.396748j;
  c12 -3.5026;
  z13 0.0902668+0.468190j;
  c13 -5.0800;
  z21 0.0897945+0.442360j;
  c21 -4.2933;
  z22 0.341392+1.04990j;
  c22 15.4852;
  z23 0.0902668+0.468190j;
  c23 -5.0800;
  z31 0.0919959+0.396748j;
  c31 -3.5026;
  z32 0.0902668+0.468190j;
  c32 -5.0800;
  z33 0.345689+1.01315j;
  c33 15.1789;
}
object line_configuration {
  name "lcon_1ph-xx2_acsr1/0_tpx_C";
  z33 1.66096+1.28979j;
  c33 10.4538;
}
object line_configuration {
  name "lcon_3ph_h-2_acsr2_acsr2_acsr2_acsr_ABC";
  z11 1.82094+1.42409j;
  c11 12.6870;
  z12 0.228633+0.589205j;
  c12 -2.8329;
  z13 0.222923+0.653318j;
  c13 -3.9771;
  z21 0.221283+0.625357j;
  c21 -3.4068;
  z22 1.80988+1.43790j;
  c22 13.2005;
  z23 0.222923+0.653318j;
  c23 -3.9771;
  z31 0.228633+0.589205j;
  c31 -2.8329;
  z32 0.222923+0.653318j;
  c32 -3.9771;
  z33 1.82438+1.41983j;
  c33 13.0060;
}
object line_configuration {
  name "lcon_1ph-xx4_acsr4_wpal_C";
  z33 2.69924+1.50057j;
  c33 10.1754;
}
object line_configuration {
  name "lcon_1ph-2/0_acsrxx2_acsr_A";
  z11 1.04880+1.41852j;
  c11 10.8950;
}
object line_configuration {
  name "lcon_1ph-xx2/0_acsr1/0_tpx_C";
  z33 0.903584+1.26575j;
  c33 10.8950;
}
object line_configuration {
  name "lcon_3ph_h-397_acsr397_acsr397_acsr2/0_acsr_ABC";
  z11 0.434553+1.12006j;
  c11 14.7027;
  z12 0.182722+0.496114j;
  c12 -3.5026;
  z13 0.178230+0.563687j;
  c13 -5.0800;
  z21 0.176949+0.536732j;
  c21 -4.2933;
  z22 0.425887+1.14059j;
  c22 15.4852;
  z23 0.178230+0.563687j;
  c23 -5.0800;
  z31 0.182722+0.496114j;
  c31 -3.5026;
  z32 0.178230+0.563687j;
  c32 -5.0800;
  z33 0.437256+1.11370j;
  c33 15.1789;
}
object line_configuration {
  name "lcon_1ph-xx2_acsr2_acsr_C";
  z33 1.80617+1.44256j;
  c33 10.4538;
}
object line_configuration {
  name "lcon_3ph_h-2/0_acsr2/0_acsr2/0_acsr2_wpal_ABC";
  z11 1.06486+1.40657j;
  c11 13.4300;
  z12 0.229930+0.595802j;
  c12 -3.0779;
  z13 0.224203+0.659678j;
  c13 -4.3727;
  z21 0.222558+0.631648j;
  c21 -3.7272;
  z22 1.05376+1.41992j;
  c22 14.0347;
  z23 0.224203+0.659678j;
  c23 -4.3727;
  z31 0.229930+0.595802j;
  c31 -3.0779;
  z32 0.224203+0.659678j;
  c32 -4.3727;
  z33 1.06831+1.40245j;
  c33 13.8026;
}
object line_configuration {
  name "lcon_3ph_h-4_acsr4_acsr4_acsr2_wpal_ABC";
  z11 2.70941+1.42541j;
  c11 12.2323;
  z12 0.229930+0.595802j;
  c12 -2.6843;
  z13 0.224203+0.659678j;
  c13 -3.7415;
  z21 0.222558+0.631648j;
  c21 -3.2146;
  z22 2.69831+1.43876j;
  c22 12.6944;
  z23 0.224203+0.659678j;
  c23 -3.7415;
  z31 0.229930+0.595802j;
  c31 -2.6843;
  z32 0.224203+0.659678j;
  c32 -3.7415;
  z33 2.71286+1.42129j;
  c33 12.5210;
}
object line_configuration {
  name "lcon_cap_1a_PUZ_A";
  z11 1609.34+1609.34j;
  c11 0.0000;
}
object line_configuration {
  name "lcon_1ph-4_wpalxx4_wpal_A";
  z11 2.62938+1.44331j;
  c11 10.1754;
}
object line_configuration {
  name "lcon_3ph_h-4_acsr4_acsr4_acsr4_tpx_ABC";
  z11 2.71390+1.48797j;
  c11 12.2323;
  z12 0.234396+0.659039j;
  c12 -2.6843;
  z13 0.228780+0.720677j;
  c13 -3.7415;
  z21 0.227164+0.691995j;
  c21 -3.2146;
  z22 2.70301+1.49697j;
  c22 12.6944;
  z23 0.228780+0.720677j;
  c23 -3.7415;
  z31 0.234396+0.659039j;
  c31 -2.6843;
  z32 0.228780+0.720677j;
  c32 -3.7415;
  z33 2.71728+1.48521j;
  c33 12.5210;
}
object line_configuration {
  name "lcon_1ph-4_acsrxx1/0_3w_cs_A";
  z11 2.67450+1.35837j;
  c11 10.1754;
}
object line_configuration {
  name "lcon_3p_1/0_axnj_db_ABC";
  z11 1.31573+0.444400j;
  c11 0.0000;
  z12 0.428730+0.121300j;
  c12 0.0000;
  z13 0.428730+0.121300j;
  c13 0.0000;
  z21 0.428730+0.121300j;
  c21 0.0000;
  z22 1.31573+0.444400j;
  c22 0.0000;
  z23 0.428730+0.121300j;
  c23 0.0000;
  z31 0.428730+0.121300j;
  c31 0.0000;
  z32 0.428730+0.121300j;
  c32 0.0000;
  z33 1.31573+0.444400j;
  c33 0.0000;
}
object transformer_configuration {
  name "xcon_ct75";
  connect_type SINGLE_PHASE_CENTER_TAPPED;
  primary_voltage 7200.000;
  secondary_voltage 120.000;
  power_rating 75.000;
  impedance 0.00600000+0.0163200j;
  impedance1 0.0120000+0.00816000j;
  impedance2 0.0120000+0.00816000j;
  shunt_reactance 200.000000;
  shunt_resistance 500.000000;
}
object transformer_configuration {
  name "xcon_ct50";
  connect_type SINGLE_PHASE_CENTER_TAPPED;
  primary_voltage 7200.000;
  secondary_voltage 120.000;
  power_rating 50.000;
  impedance 0.00600000+0.0163200j;
  impedance1 0.0120000+0.00816000j;
  impedance2 0.0120000+0.00816000j;
  shunt_reactance 200.000000;
  shunt_resistance 500.000000;
}
object transformer_configuration {
  name "xcon_ct5";
  connect_type SINGLE_PHASE_CENTER_TAPPED;
  primary_voltage 7200.000;
  secondary_voltage 120.000;
  power_rating 5.000;
  impedance 0.00600000+0.0163200j;
  impedance1 0.0120000+0.00816000j;
  impedance2 0.0120000+0.00816000j;
  shunt_reactance 200.000000;
  shunt_resistance 500.000000;
}
object transformer_configuration {
  name "xcon_ct100";
  connect_type SINGLE_PHASE_CENTER_TAPPED;
  primary_voltage 7200.000;
  secondary_voltage 120.000;
  power_rating 100.000;
  impedance 0.00600000+0.0163200j;
  impedance1 0.0120000+0.00816000j;
  impedance2 0.0120000+0.00816000j;
  shunt_reactance 200.000000;
  shunt_resistance 500.000000;
}
object transformer_configuration {
  name "xcon_ct250";
  connect_type SINGLE_PHASE_CENTER_TAPPED;
  primary_voltage 7200.000;
  secondary_voltage 120.000;
  power_rating 250.000;
  impedance 0.00600000+0.0163200j;
  impedance1 0.0120000+0.00816000j;
  impedance2 0.0120000+0.00816000j;
  shunt_reactance 200.000000;
  shunt_resistance 500.000000;
}
object transformer_configuration {
  name "xcon_ct25";
  connect_type SINGLE_PHASE_CENTER_TAPPED;
  primary_voltage 7200.000;
  secondary_voltage 120.000;
  power_rating 25.000;
  impedance 0.00600000+0.0163200j;
  impedance1 0.0120000+0.00816000j;
  impedance2 0.0120000+0.00816000j;
  shunt_reactance 200.000000;
  shunt_resistance 500.000000;
}
object transformer_configuration {
  name "xcon_ct15";
  connect_type SINGLE_PHASE_CENTER_TAPPED;
  primary_voltage 7200.000;
  secondary_voltage 120.000;
  power_rating 15.000;
  impedance 0.00600000+0.0163200j;
  impedance1 0.0120000+0.00816000j;
  impedance2 0.0120000+0.00816000j;
  shunt_reactance 200.000000;
  shunt_resistance 500.000000;
}
object transformer_configuration {
  name "xcon_ct37";
  connect_type SINGLE_PHASE_CENTER_TAPPED;
  primary_voltage 7200.000;
  secondary_voltage 120.000;
  power_rating 37.500;
  impedance 0.00600000+0.0163200j;
  impedance1 0.0120000+0.00816000j;
  impedance2 0.0120000+0.00816000j;
  shunt_reactance 200.000000;
  shunt_resistance 500.000000;
}
object transformer_configuration {
  name "xcon_ct10";
  connect_type SINGLE_PHASE_CENTER_TAPPED;
  primary_voltage 7200.000;
  secondary_voltage 120.000;
  power_rating 10.000;
  impedance 0.00600000+0.0163200j;
  impedance1 0.0120000+0.00816000j;
  impedance2 0.0120000+0.00816000j;
  shunt_reactance 200.000000;
  shunt_resistance 500.000000;
}
object capacitor {
  name "cap_capbank2a";
  parent "nd_r20185";
  phases AN;
  phases_connected AN;
  cap_nominal_voltage 7200.00;
  capacitor_A 300000.00;
  switchA CLOSED;
  control MANUAL; // VAR;
  VAr_set_low -225000.00;
  VAr_set_high 150000.00;
	remote_sense "line_cap_1a";
  pt_phase A;
	control_level BANK;
  dwell_time 100.00;
}
object capacitor {
  name "cap_capbank2b";
  parent "nd_r20185";
  phases BN;
  phases_connected BN;
  cap_nominal_voltage 7200.00;
  capacitor_B 300000.00;
  switchB CLOSED;
  control MANUAL; // VAR;
  VAr_set_low -225000.00;
  VAr_set_high 150000.00;
	remote_sense "line_cap_1b";
  pt_phase B;
	control_level BANK;
  dwell_time 101.00;
}
object capacitor {
  name "cap_capbank1a";
  parent "nd_r42247";
  phases AN;
  phases_connected AN;
  cap_nominal_voltage 7200.00;
  capacitor_A 300000.00;
  switchA CLOSED;
  control MANUAL; // VAR;
  VAr_set_low -225000.00;
  VAr_set_high 150000.00;
	remote_sense "line_cap_2a";
  pt_phase A;
	control_level BANK;
  dwell_time 100.00;
}
object capacitor {
  name "cap_capbank1b";
  parent "nd_r42247";
  phases BN;
  phases_connected BN;
  cap_nominal_voltage 7200.00;
  capacitor_B 300000.00;
  switchB CLOSED;
  control MANUAL; // VAR;
  VAr_set_low -225000.00;
  VAr_set_high 150000.00;
	remote_sense "line_cap_2b";
  pt_phase B;
	control_level BANK;
  dwell_time 101.00;
}
object capacitor {
  name "cap_capbank2c";
  parent "nd_r20185";
  phases CN;
  phases_connected CN;
  cap_nominal_voltage 7200.00;
  capacitor_C 300000.00;
  switchC CLOSED;
  control MANUAL; // VAR;
  VAr_set_low -225000.00;
  VAr_set_high 150000.00;
	remote_sense "line_cap_1c";
  pt_phase C;
	control_level BANK;
  dwell_time 102.00;
}
object capacitor {
  name "cap_capbank0a";
  parent "nd_r42246";
  phases AN;
  phases_connected AN;
  cap_nominal_voltage 7200.00;
  capacitor_A 400000.00;
  switchA CLOSED;
  control MANUAL; // VAR;
  VAr_set_low -300000.00;
  VAr_set_high 200000.00;
	remote_sense "line_cap_3a";
  pt_phase A;
	control_level BANK;
  dwell_time 100.00;
}
object capacitor {
  name "cap_capbank3";
  parent "nd_r18242";
  phases ABCN;
  phases_connected ABCN;
  cap_nominal_voltage 7200.20;
  capacitor_A 300000.00;
  switchA CLOSED;
  capacitor_B 300000.00;
  switchB CLOSED;
  capacitor_C 300000.00;
  switchC CLOSED;
}
object capacitor {
  name "cap_capbank0b";
  parent "nd_r42246";
  phases BN;
  phases_connected BN;
  cap_nominal_voltage 7200.00;
  capacitor_B 400000.00;
  switchB CLOSED;
  control MANUAL; // VAR;
  VAr_set_low -300000.00;
  VAr_set_high 200000.00;
	remote_sense "line_cap_3b";
  pt_phase B;
	control_level BANK;
  dwell_time 101.00;
}
object capacitor {
  name "cap_capbank1c";
  parent "nd_r42247";
  phases CN;
  phases_connected CN;
  cap_nominal_voltage 7200.00;
  capacitor_C 300000.00;
  switchC CLOSED;
  control MANUAL; // VAR;
  VAr_set_low -225000.00;
  VAr_set_high 150000.00;
	remote_sense "line_cap_2c";
  pt_phase C;
	control_level BANK;
  dwell_time 102.00;
}
object capacitor {
  name "cap_capbank0c";
  parent "nd_r42246";
  phases CN;
  phases_connected CN;
  cap_nominal_voltage 7200.00;
  capacitor_C 400000.00;
  switchC CLOSED;
  control MANUAL; // VAR;
  VAr_set_low -300000.00;
  VAr_set_high 200000.00;
	remote_sense "line_cap_3c";
  pt_phase C;
	control_level BANK;
  dwell_time 102.00;
}
object triplex_line {
  name "tpx_tpx355777b0";
  from "nd_x3085398b";
  to "nd_sx3085398b";
  phases BS;
  length 50.0009;
  configuration "tcon_4/0triplex_12";
}
object overhead_line {
  name "line_ln5653456-1";
  from "nd_l3066812";
  to "nd_m1047755";
  phases A;
  length 51.9316;
  configuration "lcon_1ph-4_acsrxx4_acsr_A";
}
object triplex_line {
  name "tpx_tpx339008b0";
  from "nd_sx3122835b";
  to "nd_x3122835b";
  phases BS;
  length 50.0009;
  configuration "tcon_4/0triplex_12";
}
object overhead_line {
  name "line_ln5739188-1";
  from "nd_l2726973";
  to "nd_m1047485";
  phases ABC;
  length 277.6861;
  configuration "lcon_3ph_h-2/0_acsr2/0_acsr2/0_acsr2_acsr_ABC";
}
object overhead_line {
  name "line_ln6291242-1";
  from "nd_m1209791";
  to "nd_m1209797";
  phases ABC;
  length 218.5071;
  configuration "lcon_3ph_h-397_acsr397_acsr397_acsr2/0_acsr_ABC";
}
object overhead_line {
  name "line_ln5833622-1";
  from "nd_m1069174";
  to "nd_l3216347";
  phases C;
  length 241.7209;
  configuration "lcon_1ph-xx4_acsr4_wpal_C";
}
object triplex_line {
  name "tpx_tpx338962c0";
  from "nd_sx2748125c";
  to "nd_x2748125c";
  phases CS;
  length 50.0009;
  configuration "tcon_4/0triplex_12";
}
object overhead_line {
  name "line_ln6439600-1";
  from "nd_l3172805";
  to "nd_m1026658";
  phases A;
  length 350.0076;
  configuration "lcon_1ph-2_acsrxx2_acsr_A";
}
object triplex_line {
  name "tpx_tpx260577c0";
  from "nd_sx2767341c";
  to "nd_x2767341c";
  phases CS;
  length 50.0009;
  configuration "tcon_4/0triplex_12";
}
object overhead_line {
  name "line_ln5805761-1";
  from "nd_m1142843";
  to "nd_l3048965";
  phases ABC;
  length 168.4427;
  configuration "lcon_3ph_h-397_acsr397_acsr397_acsr4_wpal_ABC";
}
object triplex_line {
  name "tpx_tpx293673a0";
  from "nd_sx3122827a";
  to "nd_x3122827a";
  phases AS;
  length 50.0009;
  configuration "tcon_4/0triplex_12";
}
object triplex_line {
  name "tpx_tpx21398815a0";
  from "nd_x3216351a";
  to "nd_sx3216351a";
  phases AS;
  length 50.0009;
  configuration "tcon_4/0triplex_12";
}
object triplex_line {
  name "tpx_tpx228446184a0";
  from "nd_x3159645a";
  to "nd_sx3159645a";
  phases AS;
  length 50.0009;
  configuration "tcon_4/0triplex_12";
}
object overhead_line {
  name "line_ln5746705-1";
  from "nd_m1142843";
  to "nd_p829976";
  phases A;
  length 32.4353;
  configuration "lcon_1ph-4_acsrxx4_acsr_A";
}
object overhead_line {
  name "line_ln6109190-1";
  from "nd_l2879794";
  to "nd_m1142811";
  phases A;
  length 110.7500;
  configuration "lcon_1ph-4_acsrxx4_acsr_A";
}
object triplex_line {
  name "tpx_tpx302676a0";
  from "nd_x2710519a";
  to "nd_sx2710519a";
  phases AS;
  length 50.0009;
  configuration "tcon_4/0triplex_12";
}
object overhead_line {
  name "line_ln6048632-1";
  from "nd_l2936275";
  to "nd_l3179674";
  phases B;
  length 297.8782;
  configuration "lcon_1ph-x4_acsrx4_acsr_B";
}
object triplex_line {
  name "tpx_tpx21386771b0";
  from "nd_x2897807b";
  to "nd_sx2897807b";
  phases BS;
  length 50.0009;
  configuration "tcon_4/0triplex_12";
}
object triplex_line {
  name "tpx_tpx260640c0";
  from "nd_x3179673c";
  to "nd_sx3179673c";
  phases CS;
  length 50.0009;
  configuration "tcon_4/0triplex_12";
}
object triplex_line {
  name "tpx_tpx226308716b0";
  from "nd_x2690187b";
  to "nd_sx2690187b";
  phases BS;
  length 50.0009;
  configuration "tcon_4/0triplex_12";
}
object overhead_line {
  name "line_ln6018241-1";
  from "nd_l2936211";
  to "nd_l2842329";
  phases C;
  length 265.2192;
  configuration "lcon_1ph-xx4_wpal4_wpal_C";
}
object overhead_line {
  name "line_ln5472346-1";
  from "nd_l3160100";
  to "nd_l3085390";
  phases B;
  length 219.3926;
  configuration "lcon_1ph-x2_acsrx2_acsr_B";
}
object overhead_line {
  name "line_ln5835124-1";
  from "nd_m1069731";
  to "nd_l2710504";
  phases B;
  length 182.6261;
  configuration "lcon_1ph-x4_acsrx4_acsr_B";
}
object overhead_line {
  name "line_ln6411382-1";
  from "nd_m1089144";
  to "nd_m1089143";
  phases A;
  length 84.3585;
  configuration "lcon_1ph-2_acsrxx2_acsr_A";
}
object overhead_line {
  name "line_ln5532739-1";
  from "nd_l3254207";
  to "nd_m1069390";
  phases A;
  length 232.5821;
  configuration "lcon_1ph-4_acsrxx4_acsr_A";
}
object triplex_line {
  name "tpx_tpx28121368a0";
  from "nd_x2748143a";
  to "nd_sx2748143a";
  phases AS;
  length 50.0009;
  configuration "tcon_4/0triplex_12";
}
object overhead_line {
  name "line_ln5621826-1";
  from "nd_m1026942";
  to "nd_l3270814";
  phases A;
  length 100.0027;
  configuration "lcon_1ph-4_acsrxx4_acsr_A";
}
object triplex_line {
  name "tpx_tpx355600b0";
  from "nd_x2691938b";
  to "nd_sx2691938b";
  phases BS;
  length 50.0009;
  configuration "tcon_4/0triplex_12";
}
object overhead_line {
  name "line_ln5744361-1";
  from "nd_l2860485";
  to "nd_l2860506";
  phases B;
  length 683.6444;
  configuration "lcon_1ph-x2_acsrx2_acsr_B";
}
object triplex_line {
  name "tpx_tpx2224387113a0";
  from "nd_x3728042a";
  to "nd_sx3728042a";
  phases AS;
  length 50.0009;
  configuration "tcon_4/0triplex_12";
}
object triplex_line {
  name "tpx_tpx21386442c0";
  from "nd_x3179637c";
  to "nd_sx3179637c";
  phases CS;
  length 50.0009;
  configuration "tcon_4/0triplex_12";
}
object overhead_line {
  name "line_ln5987964-1";
  from "nd_m1108278";
  to "nd_l3179699";
  phases B;
  length 377.7602;
  configuration "lcon_1ph-x2_acsrx2_acsr_B";
}
object triplex_line {
  name "tpx_tpx28129923c0";
  from "nd_x3123509c";
  to "nd_sx3123509c";
  phases CS;
  length 50.0009;
  configuration "tcon_4/0triplex_12";
}
object overhead_line {
  name "line_ln5955074-3";
  from "nd_p827521";
  to "nd_n1139546";
  phases B;
  length 29.9900;
  configuration "lcon_1ph-x4_acsrx4_acsr_B";
}
object triplex_line {
  name "tpx_tpx337692b0";
  from "nd_x2879061b";
  to "nd_sx2879061b";
  phases BS;
  length 50.0009;
  configuration "tcon_4/0triplex_12";
}
object overhead_line {
  name "line_ln5955074-2";
  from "nd_l2970842";
  to "nd_n1139546";
  phases B;
  length 280.7418;
  configuration "lcon_1ph-x4_acsrx4_acsr_B";
}
object triplex_line {
  name "tpx_tpx260520b0";
  from "nd_sx3254915b";
  to "nd_x3254915b";
  phases BS;
  length 50.0009;
  configuration "tcon_4/0triplex_12";
}
object triplex_line {
  name "tpx_tpx351020c0";
  from "nd_sx3045895c";
  to "nd_x3045895c";
  phases CS;
  length 50.0009;
  configuration "tcon_4/0triplex_12";
}
object overhead_line {
  name "line_ln6170199-2";
  from "nd_m1108375";
  to "nd_m3037449";
  phases C;
  length 60.2710;
  configuration "lcon_1ph-xx2_acsr2_acsr_C";
}
object overhead_line {
  name "line_ln6078773-1";
  from "nd_m1142801";
  to "nd_m1142798";
  phases B;
  length 260.6285;
  configuration "lcon_1ph-x2_acsrx2_acsr_B";
}
object overhead_line {
  name "line_ln5502544-1";
  from "nd_l2954355";
  to "nd_m1026665";
  phases A;
  length 78.1163;
  configuration "lcon_1ph-4_acsrxx4_acsr_A";
}
object overhead_line {
  name "line_ln6318740-3";
  from "nd_m1026895";
  to "nd_n1137998";
  phases C;
  length 78.1852;
  configuration "lcon_1ph-xx2_acsr2_acsr_C";
}
object triplex_line {
  name "tpx_tpx338899c0";
  from "nd_sx3122814c";
  to "nd_x3122814c";
  phases CS;
  length 50.0009;
  configuration "tcon_4/0triplex_12";
}
object overhead_line {
  name "line_ln6318740-2";
  from "nd_n1137998";
  to "nd_p895409";
  phases C;
  length 39.6178;
  configuration "lcon_1ph-xx2_acsr2_acsr_C";
}
object overhead_line {
  name "line_ln6200527-1";
  from "nd_l2730163";
  to "nd_l2992624";
  phases ABC;
  length 277.3420;
  configuration "lcon_3ph_h-397_acsr397_acsr397_acsr2/0_acsr_ABC";
}
object overhead_line {
  name "line_ln5895789-2";
  from "nd_m1026702";
  to "nd_n1139552";
  phases ABC;
  length 287.6580;
  configuration "lcon_3ph_h-4_acsr4_acsr4_acsr4_acsr_ABC";
}
object overhead_line {
  name "line_ln6350574-1";
  from "nd_m1108381";
  to "nd_l3254237";
  phases ABC;
  length 249.2006;
  configuration "lcon_3ph_h-4_acsr2_acsr2_acsr4_acsr_ABC";
}
object overhead_line {
  name "line_ln5895789-3";
  from "nd_r18243";
  to "nd_n1139552";
  phases ABC;
  length 101.5811;
  configuration "lcon_3ph_h-4_acsr4_acsr4_acsr4_acsr_ABC";
}
object overhead_line {
  name "line_ln5686489-1";
  from "nd_196-35541";
  to "nd_m1108316";
  phases C;
  length 27.5077;
  configuration "lcon_1ph-xx4_acsr4_acsr_C";
}
object overhead_line {
  name "line_ln6327237-1";
  from "nd_m1026699";
  to "nd_m1026693";
  phases B;
  length 279.6765;
  configuration "lcon_1ph-x2_acsrx2_acsr_B";
}
object overhead_line {
  name "line_ln6327237-2";
  from "nd_m1026704";
  to "nd_m1026699";
  phases B;
  length 172.3718;
  configuration "lcon_1ph-x2_acsrx2_acsr_B";
}
object triplex_line {
  name "tpx_tpx138684a0";
  from "nd_sx3085396a";
  to "nd_x3085396a";
  phases AS;
  length 50.0009;
  configuration "tcon_4/0triplex_12";
}
object overhead_line {
  name "line_ln5773033-1";
  from "nd_p901913";
  to "nd_m1047513";
  phases C;
  length 20.5216;
  configuration "lcon_1ph-xx4_acsr4_acsr_C";
}
object overhead_line {
  name "line_ln5504714-1";
  from "nd_m1026485";
  to "nd_p827542";
  phases B;
  length 24.1747;
  configuration "lcon_1ph-x2_acsrx2_acsr_B";
}
object triplex_line {
  name "tpx_tpx138342c0";
  from "nd_x2897775c";
  to "nd_sx2897775c";
  phases CS;
  length 50.0009;
  configuration "tcon_4/0triplex_12";
}
object overhead_line {
  name "line_ln5774449-1";
  from "nd_m1089204";
  to "nd_l3010557";
  phases A;
  length 144.1017;
  configuration "lcon_1ph-2_acsrxx2_acsr_A";
}
object triplex_line {
  name "tpx_tpx293660b0";
  from "nd_sx2916610b";
  to "nd_x2916610b";
  phases BS;
  length 50.0009;
  configuration "tcon_4/0triplex_12";
}
object overhead_line {
  name "line_ln5773046-1";
  from "nd_m1069560";
  to "nd_m1069567";
  phases B;
  length 267.1578;
  configuration "lcon_1ph-x4_acsrx4_acsr_B";
}
object triplex_line {
  name "tpx_tpx28099529c0";
  from "nd_x3235268c";
  to "nd_sx3235268c";
  phases CS;
  length 50.0009;
  configuration "tcon_4/0triplex_12";
}
object overhead_line {
  name "line_ln5773046-2";
  from "nd_m1069551";
  to "nd_m1069560";
  phases B;
  length 399.6722;
  configuration "lcon_1ph-x4_acsrx4_acsr_B";
}
object overhead_line {
  name "line_ln6229831-1";
  from "nd_l2729430";
  to "nd_l2710542";
  phases B;
  length 116.0445;
  configuration "lcon_1ph-x4_acsrx4_acsr_B";
}
object triplex_line {
  name "tpx_tpx228445756c0";
  from "nd_x2972704c";
  to "nd_sx2972704c";
  phases CS;
  length 50.0009;
  configuration "tcon_4/0triplex_12";
}
object triplex_line {
  name "tpx_tpx302410a0";
  from "nd_x3104131a";
  to "nd_sx3104131a";
  phases AS;
  length 50.0009;
  configuration "tcon_4/0triplex_12";
}
object overhead_line {
  name "line_ln5804798-3";
  from "nd_n1136030";
  to "nd_m1047766";
  phases B;
  length 101.0495;
  configuration "lcon_1ph-x4_acsrx4_acsr_B";
}
object overhead_line {
  name "line_ln5804798-2";
  from "nd_m1047763";
  to "nd_n1136030";
  phases B;
  length 57.4991;
  configuration "lcon_1ph-x4_acsrx4_acsr_B";
}
object overhead_line {
  name "line_ln5986931-2";
  from "nd_m3036165";
  to "nd_l3235252";
  phases B;
  length 214.2829;
  configuration "lcon_1ph-x2_acsrx2_acsr_B";
}
object overhead_line {
  name "line_ln6110366-1";
  from "nd_p827553";
  to "nd_m1047826";
  phases B;
  length 17.5676;
  configuration "lcon_1ph-x4_acsrx4_acsr_B";
}
object overhead_line {
  name "line_ln6108170-1";
  from "nd_m1047793";
  to "nd_m1047795";
  phases B;
  length 21.4717;
  configuration "lcon_1ph-x4_acsrx4_acsr_B";
}
object overhead_line {
  name "line_ln5623394-1";
  from "nd_l2729407";
  to "nd_m1047388";
  phases B;
  length 161.6184;
  configuration "lcon_1ph-x4_acsrx4_acsr_B";
}
object overhead_line {
  name "line_ln5472359-1";
  from "nd_l3216348";
  to "nd_m1047406";
  phases A;
  length 95.9189;
  configuration "lcon_1ph-4_wpalxx4_wpal_A";
}
object overhead_line {
  name "line_ln5623404-1";
  from "nd_l3263051";
  to "nd_m1069199";
  phases C;
  length 234.3576;
  configuration "lcon_1ph-xx2_acsr2_acsr_C";
}
object overhead_line {
  name "line_ln5644817-1";
  from "nd_m1008733";
  to "nd_l3225319";
  phases B;
  length 45.0148;
  configuration "lcon_1ph-x4_wpalx4_wpal_B";
}
object overhead_line {
  name "line_ln5651998-1";
  from "nd_l3048937";
  to "nd_l3176661";
  phases C;
  length 354.9270;
  configuration "lcon_1ph-xx2_acsr2_acsr_C";
}
object overhead_line {
  name "line_ln6199531-1";
  from "nd_l2841638";
  to "nd_l2860492";
  phases C;
  length 299.2813;
  configuration "lcon_1ph-xx2_acsr2_acsr_C";
}
object triplex_line {
  name "tpx_tpx21381118b0";
  from "nd_x2710530b";
  to "nd_sx2710530b";
  phases BS;
  length 50.0009;
  configuration "tcon_4/0triplex_12";
}
object triplex_line {
  name "tpx_tpx223663c0";
  from "nd_x2936216c";
  to "nd_sx2936216c";
  phases CS;
  length 50.0009;
  configuration "tcon_4/0triplex_12";
}
object triplex_line {
  name "tpx_tpx355590b0";
  from "nd_x2860478b";
  to "nd_sx2860478b";
  phases BS;
  length 50.0009;
  configuration "tcon_4/0triplex_12";
}
object overhead_line {
  name "line_ln5956464-1";
  from "nd_m1047672";
  to "nd_m1047669";
  phases ABC;
  length 11.1373;
  configuration "lcon_3ph_h-4_wpal4_wpal4_wpal4_wpal_ABC";
}
object overhead_line {
  name "line_ln6201850-1";
  from "nd_e183493";
  to "nd_m1125902";
  phases ABC;
  length 292.8500;
  configuration "lcon_3ph_h-397_acsr397_acsr397_acsr2/0_acsr_ABC";
}
object overhead_line {
  name "line_ln5593219-1";
  from "nd_m1089189";
  to "nd_l2841619";
  phases C;
  length 260.3539;
  configuration "lcon_1ph-xx4_wpal4_wpal_C";
}
object overhead_line {
  name "line_ln6352699-1";
  from "nd_m1026876";
  to "nd_p827514";
  phases ABC;
  length 19.9927;
  configuration "lcon_3ph_h-4_acsr4_acsr4_acsr4_acsr_ABC";
}
object overhead_line {
  name "line_ln5604685-1";
  from "nd_m1089145";
  to "nd_m1089143";
  phases ABC;
  length 243.0056;
  configuration "lcon_3ph_h-2_acsr2_acsr2_acsr2_acsr_ABC";
}
object overhead_line {
  name "line_ln6044631-1";
  from "nd_e203026";
  to "nd_m1009650";
  phases ABC;
  length 890.6687;
  configuration "lcon_3ph_h-4_acsr4_acsr4_acsr4_acsr_ABC";
}
object overhead_line {
  name "line_ln5604685-2";
  from "nd_m1089145";
  to "nd_l3047289";
  phases ABC;
  length 243.0030;
  configuration "lcon_3ph_h-2_acsr2_acsr2_acsr2_acsr_ABC";
}
object overhead_line {
  name "line_ln5502531-1";
  from "nd_m1089131";
  to "nd_l3104125";
  phases ABC;
  length 125.4843;
  configuration "lcon_3ph_h-4_acsr4_acsr4_acsr4_wpal_ABC";
}
object overhead_line {
  name "line_ln5651985-3";
  from "nd_n1136357";
  to "nd_l2897790";
  phases C;
  length 131.1822;
  configuration "lcon_1ph-xx2_acsr2_acsr_C";
}
object triplex_line {
  name "tpx_tpx337702b0";
  from "nd_sx3029504b";
  to "nd_x3029504b";
  phases BS;
  length 50.0009;
  configuration "tcon_4/0triplex_12";
}
object overhead_line {
  name "line_ln5651985-2";
  from "nd_n1136357";
  to "nd_m1069548";
  phases C;
  length 61.2280;
  configuration "lcon_1ph-xx2_acsr2_acsr_C";
}
object overhead_line {
  name "line_ln5776833-1";
  from "nd_m1166370";
  to "nd_p830058";
  phases C;
  length 29.0947;
  configuration "lcon_1ph-xx4_wpal4_wpal_C";
}
object triplex_line {
  name "tpx_tpx356797c0";
  from "nd_x2955006c";
  to "nd_sx2955006c";
  phases CS;
  length 50.0009;
  configuration "tcon_4/0triplex_12";
}
object overhead_line {
  name "line_ln5895776-1";
  from "nd_l2804257";
  to "nd_l2860485";
  phases B;
  length 194.9660;
  configuration "lcon_1ph-x2_acsrx2_acsr_B";
}
object triplex_line {
  name "tpx_tpx337626c0";
  from "nd_sx3216343c";
  to "nd_x3216343c";
  phases CS;
  length 50.0009;
  configuration "tcon_4/0triplex_12";
}
object overhead_line {
  name "line_ln5835137-1";
  from "nd_l3029500";
  to "nd_m1026764";
  phases A;
  length 299.3632;
  configuration "lcon_1ph-2_acsrxx2_acsr_A";
}
object triplex_line {
  name "tpx_tpx228219458b0";
  from "nd_x3215549b";
  to "nd_sx3215549b";
  phases BS;
  length 50.0009;
  configuration "tcon_4/0triplex_12";
}
object overhead_line {
  name "line_ln6439986-2";
  from "nd_p901932";
  to "nd_n1136359";
  phases C;
  length 16.3311;
  configuration "lcon_1ph-xx4_acsr4_acsr_C";
}
object overhead_line {
  name "line_ln6439986-3";
  from "nd_l3008237";
  to "nd_n1136359";
  phases C;
  length 94.4884;
  configuration "lcon_1ph-xx4_acsr4_acsr_C";
}
object overhead_line {
  name "line_ln6991377-17";
  from "nd_m3949157";
  to "nd_l3728037";
  phases A;
  length 345.7821;
  configuration "lcon_1ph-2_acsrxx2_acsr_A";
}
object overhead_line {
  name "line_ln6991377-16";
  from "nd_m3949157";
  to "nd_l3727708";
  phases A;
  length 16.6518;
  configuration "lcon_1ph-2_acsrxx2_acsr_A";
}
object triplex_line {
  name "tpx_tpx260488a0";
  from "nd_x2842379a";
  to "nd_sx2842379a";
  phases AS;
  length 50.0009;
  configuration "tcon_4/0triplex_12";
}
object overhead_line {
  name "line_ln5775367-1";
  from "nd_l2823545";
  to "nd_m1126025";
  phases A;
  length 182.4407;
  configuration "lcon_1ph-4_acsrxx2_acsr_A";
}
object overhead_line {
  name "line_ln6991377-18";
  from "nd_m3949154";
  to "nd_l3728037";
  phases A;
  length 340.1888;
  configuration "lcon_1ph-2_acsrxx2_acsr_A";
}
object overhead_line {
  name "line_ln6991377-13";
  from "nd_l3727707";
  to "nd_l3729298";
  phases A;
  length 195.4970;
  configuration "lcon_1ph-2_acsrxx2_acsr_A";
}
object overhead_line {
  name "line_ln6991377-15";
  from "nd_l3727707";
  to "nd_l3727708";
  phases A;
  length 180.7066;
  configuration "lcon_1ph-2_acsrxx2_acsr_A";
}
object overhead_line {
  name "line_ln6350530-1";
  from "nd_m1047819";
  to "nd_m1047821";
  phases B;
  length 222.4618;
  configuration "lcon_1ph-x4_acsrx4_wpal_B";
}
object triplex_line {
  name "tpx_tpx356807a0";
  from "nd_sx2823545a";
  to "nd_x2823545a";
  phases AS;
  length 50.0009;
  configuration "tcon_4/0triplex_12";
}
object overhead_line {
  name "line_ln6077797-1";
  from "nd_l2897791";
  to "nd_m1069627";
  phases B;
  length 454.5807;
  configuration "lcon_1ph-x4_acsrx4_acsr_B";
}
object overhead_line {
  name "line_ln5684836-1";
  from "nd_l2674027";
  to "nd_l2692633";
  phases ABC;
  length 222.7133;
  configuration "lcon_3ph_h-397_acsr397_acsr397_acsr2/0_acsr_ABC";
}
object overhead_line {
  name "line_ln6991377-11";
  from "nd_l3729297";
  to "nd_l3729298";
  phases A;
  length 205.3482;
  configuration "lcon_1ph-2_acsrxx2_acsr_A";
}
object overhead_line {
  name "line_ln8945010-1";
  from "nd_m1009655";
  to "nd_p827528";
  phases C;
  length 23.2487;
  configuration "lcon_1p_1/0_axnj_db_C";
}
object overhead_line {
  name "line_ln6291153-1";
  from "nd_m1126023";
  to "nd_m1126017";
  phases A;
  length 251.9229;
  configuration "lcon_1ph-2_acsrxx2_acsr_A";
}
object overhead_line {
  name "line_ln5865234-1";
  from "nd_m1047750";
  to "nd_m1047744";
  phases A;
  length 276.6123;
  configuration "lcon_1ph-2_acsrxx2_acsr_A";
}
object overhead_line {
  name "line_ln6320331-1";
  from "nd_l3085396";
  to "nd_l3122813";
  phases A;
  length 765.8251;
  configuration "lcon_1ph-4_acsrxx4_acsr_A";
}
object overhead_line {
  name "line_ln8979254-2";
  from "nd_221-311905";
  to "nd_l3215203";
  phases ABC;
  length 45.8727;
  configuration "lcon_3p_1/0_axnj_db_ABC";
}
object overhead_line {
  name "line_ln8979254-1";
  from "nd_p850080";
  to "nd_221-311905";
  phases ABC;
  length 16.6854;
  configuration "lcon_3p_1/0_axnj_db_ABC";
}
object triplex_line {
  name "tpx_tpx293522a0";
  from "nd_sx2785527a";
  to "nd_x2785527a";
  phases AS;
  length 50.0009;
  configuration "tcon_4/0triplex_12";
}
object overhead_line {
  name "line_ln6201698-2";
  from "nd_n1136668";
  to "nd_p827529";
  phases B;
  length 14.9008;
  configuration "lcon_1ph-x2_acsrx4_acsr_B";
}
object triplex_line {
  name "tpx_tpx338927a0";
  from "nd_sx2972930a";
  to "nd_x2972930a";
  phases AS;
  length 50.0009;
  configuration "tcon_4/0triplex_12";
}
object overhead_line {
  name "line_ln6201698-3";
  from "nd_l3029506";
  to "nd_n1136668";
  phases B;
  length 142.0412;
  configuration "lcon_1ph-x2_acsrx4_acsr_B";
}
object overhead_line {
  name "line_ln6350539-1";
  from "nd_l2954348";
  to "nd_l3235249";
  phases A;
  length 307.3074;
  configuration "lcon_1ph-4_acsrxx4_acsr_A";
}
object triplex_line {
  name "tpx_tpx226194826a0";
  from "nd_x3232902a";
  to "nd_sx3232902a";
  phases AS;
  length 50.0009;
  configuration "tcon_4/0triplex_12";
}
object triplex_line {
  name "tpx_tpx392037b0";
  from "nd_x2673320b";
  to "nd_sx2673320b";
  phases BS;
  length 50.0009;
  configuration "tcon_4/0triplex_12";
}
object overhead_line {
  name "line_ln6170293-1";
  from "nd_m1125919";
  to "nd_l2992624";
  phases ABC;
  length 167.4939;
  configuration "lcon_3ph_h-397_acsr397_acsr397_acsr2/0_acsr_ABC";
}
object triplex_line {
  name "tpx_tpx2212168870c0";
  from "nd_x2897554c";
  to "nd_sx2897554c";
  phases CS;
  length 50.0009;
  configuration "tcon_4/0triplex_12";
}
object triplex_line {
  name "tpx_tpx355359b0";
  from "nd_x2766730b";
  to "nd_sx2766730b";
  phases BS;
  length 50.0009;
  configuration "tcon_4/0triplex_12";
}
object triplex_line {
  name "tpx_tpx293655c0";
  from "nd_sx2729414c";
  to "nd_x2729414c";
  phases CS;
  length 50.0009;
  configuration "tcon_4/0triplex_12";
}
object triplex_line {
  name "tpx_tpx226191850a0";
  from "nd_x3270814a";
  to "nd_sx3270814a";
  phases AS;
  length 50.0009;
  configuration "tcon_4/0triplex_12";
}
object triplex_line {
  name "tpx_tpx225918936c0";
  from "nd_x2688693c";
  to "nd_sx2688693c";
  phases CS;
  length 50.0009;
  configuration "tcon_4/0triplex_12";
}
object overhead_line {
  name "line_ln5593224-2";
  from "nd_m3036164";
  to "nd_l3085397";
  phases B;
  length 553.9034;
  configuration "lcon_1ph-x4_acsrx4_acsr_B";
}
object overhead_line {
  name "line_ln6019479-1";
  from "nd_p827536";
  to "nd_m1026851";
  phases A;
  length 22.0639;
  configuration "lcon_1ph-4_acsrxx2_acsr_A";
}
object overhead_line {
  name "line_ln5744330-1";
  from "nd_l3254204";
  to "nd_l2860482";
  phases A;
  length 2024.8919;
  configuration "lcon_1ph-4_acsrxx4_acsr_A";
}
object triplex_line {
  name "tpx_tpx302405a0";
  from "nd_sx2860489a";
  to "nd_x2860489a";
  phases AS;
  length 50.0009;
  configuration "tcon_4/0triplex_12";
}
object overhead_line {
  name "line_ln5804785-1";
  from "nd_l2933120";
  to "nd_l3104117";
  phases C;
  length 821.8043;
  configuration "lcon_1ph-xx2_acsr2_acsr_C";
}
object overhead_line {
  name "line_ln6198052-1";
  from "nd_l3120504";
  to "nd_m1010011";
  phases A;
  length 269.0022;
  configuration "lcon_1ph-2_acsrxx2_acsr_A";
}
object overhead_line {
  name "line_ln6505945-1";
  from "nd_l2973156";
  to "nd_m3036167";
  phases B;
  length 10.2362;
  configuration "lcon_1ph-x4_acsrx4_acsr_B";
}
object overhead_line {
  name "line_ln6506307-4";
  from "nd_l3207907";
  to "nd_m3037441";
  phases ABC;
  length 7.9536;
  configuration "lcon_3ph_h-2_acsr2_acsr2_acsr2_acsr_ABC";
}
object triplex_line {
  name "tpx_tpx293655b0";
  from "nd_x2729414b";
  to "nd_sx2729414b";
  phases BS;
  length 50.0009;
  configuration "tcon_4/0triplex_12";
}
object triplex_line {
  name "tpx_tpx138649a0";
  from "nd_x3048206a";
  to "nd_sx3048206a";
  phases AS;
  length 50.0009;
  configuration "tcon_4/0triplex_12";
}
object triplex_line {
  name "tpx_tpx21400185a0";
  from "nd_x2935559a";
  to "nd_sx2935559a";
  phases AS;
  length 50.0009;
  configuration "tcon_4/0triplex_12";
}
object overhead_line {
  name "line_ln6167749-1";
  from "nd_m1009843";
  to "nd_l3251806";
  phases B;
  length 116.6697;
  configuration "lcon_1ph-x4_wpalx4_wpal_B";
}
object triplex_line {
  name "tpx_tpx321892c0";
  from "nd_sx3235267c";
  to "nd_x3235267c";
  phases CS;
  length 50.0009;
  configuration "tcon_4/0triplex_12";
}
object triplex_line {
  name "tpx_tpx391991a0";
  from "nd_x3216346a";
  to "nd_sx3216346a";
  phases AS;
  length 50.0009;
  configuration "tcon_4/0triplex_12";
}
object overhead_line {
  name "line_ln5866308-1";
  from "nd_m1166373";
  to "nd_l2973833";
  phases ABC;
  length 135.8332;
  configuration "lcon_3ph_h-397_acsr397_acsr397_acsr2/0_acsr_ABC";
}
object overhead_line {
  name "line_ln6018330-1";
  from "nd_l3030200";
  to "nd_l2711225";
  phases C;
  length 324.5452;
  configuration "lcon_1ph-xx4_acsr4_acsr_C";
}
object triplex_line {
  name "tpx_tpx21386157a0";
  from "nd_x3067447a";
  to "nd_sx3067447a";
  phases AS;
  length 50.0009;
  configuration "tcon_4/0triplex_12";
}
object overhead_line {
  name "line_ln5896824-1";
  from "nd_m1142835";
  to "nd_l3104853";
  phases C;
  length 122.5730;
  configuration "lcon_1ph-xx4_acsr4_acsr_C";
}
object overhead_line {
  name "line_ln5653491-1";
  from "nd_m1026898";
  to "nd_m1026883";
  phases C;
  length 202.1915;
  configuration "lcon_1ph-xx4_acsr4_acsr_C";
}
object overhead_line {
  name "line_ln5500984-1";
  from "nd_m1108506";
  to "nd_l3027122";
  phases A;
  length 23.6143;
  configuration "lcon_1ph-4_acsrxx4_acsr_A";
}
object overhead_line {
  name "line_ln81018875-1";
  from "nd_m1069312";
  to "nd_p873800";
  phases C;
  length 24.0668;
  configuration "lcon_1p_1/0_axnj_db_C";
}
object triplex_line {
  name "tpx_tpx338993b0";
  from "nd_x2804272b";
  to "nd_sx2804272b";
  phases BS;
  length 50.0009;
  configuration "tcon_4/0triplex_12";
}
object overhead_line {
  name "line_ln5500984-3";
  from "nd_l3027122";
  to "nd_n1142105";
  phases A;
  length 37.9841;
  configuration "lcon_1ph-4_acsrxx4_acsr_A";
}
object overhead_line {
  name "line_ln5500984-4";
  from "nd_p901946";
  to "nd_n1142105";
  phases A;
  length 11.6133;
  configuration "lcon_1ph-4_acsrxx4_acsr_A";
}
object overhead_line {
  name "line_ln5644817-2";
  from "nd_l3048201";
  to "nd_l3225319";
  phases B;
  length 167.4501;
  configuration "lcon_1ph-x4_wpalx4_wpal_B";
}
object triplex_line {
  name "tpx_tpx321839a0";
  from "nd_sx2710516a";
  to "nd_x2710516a";
  phases AS;
  length 50.0009;
  configuration "tcon_4/0triplex_12";
}
object overhead_line {
  name "line_ln5774454-1";
  from "nd_l2691942";
  to "nd_m1047388";
  phases B;
  length 704.6481;
  configuration "lcon_1ph-x4_acsrx4_acsr_B";
}
object triplex_line {
  name "tpx_tpx260622c0";
  from "nd_x3198347c";
  to "nd_sx3198347c";
  phases CS;
  length 50.0009;
  configuration "tcon_4/0triplex_12";
}
object overhead_line {
  name "line_ln6108148-1";
  from "nd_l3029499";
  to "nd_m1047344";
  phases A;
  length 246.9745;
  configuration "lcon_1ph-4_acsrxx4_acsr_A";
}
object overhead_line {
  name "line_ln6380814-1";
  from "nd_l3197635";
  to "nd_m1047441";
  phases B;
  length 199.4209;
  configuration "lcon_1ph-x4_acsrx4_acsr_B";
}
object overhead_line {
  name "line_ln6660515-2";
  from "nd_l3448661";
  to "nd_m3327097";
  phases B;
  length 141.0013;
  configuration "lcon_1ph-x2_acsrx2_acsr_B";
}
object overhead_line {
  name "line_ln6412354-1";
  from "nd_m1166373";
  to "nd_m1166374";
  phases ABC;
  length 30.6679;
  configuration "lcon_3ph_h-397_acsr397_acsr397_acsr2/0_acsr_ABC";
}
object triplex_line {
  name "tpx_tpx227100753a0";
  from "nd_x3189190a";
  to "nd_sx3189190a";
  phases AS;
  length 50.0009;
  configuration "tcon_4/0triplex_12";
}
object overhead_line {
  name "line_ln6169255-1";
  from "nd_m1047335";
  to "nd_l2710519";
  phases A;
  length 279.9641;
  configuration "lcon_1ph-4_acsrxx4_acsr_A";
}
object overhead_line {
  name "line_ln5683821-1";
  from "nd_l2954350";
  to "nd_m1069217";
  phases C;
  length 289.9245;
  configuration "lcon_1ph-xx4_acsr4_acsr_C";
}
object triplex_line {
  name "tpx_tpx28120855a0";
  from "nd_x2673316a";
  to "nd_sx2673316a";
  phases AS;
  length 50.0009;
  configuration "tcon_4/0triplex_12";
}
object overhead_line {
  name "line_ln6900592-3";
  from "nd_m3772794";
  to "nd_l3649306";
  phases A;
  length 242.3284;
  configuration "lcon_1ph-2_acsrxx2_acsr_A";
}
object overhead_line {
  name "line_ln6258445-1";
  from "nd_p901932";
  to "nd_m1069556";
  phases C;
  length 21.1808;
  configuration "lcon_1ph-xx4_acsr4_acsr_C";
}
object overhead_line {
  name "line_ln5835142-1";
  from "nd_m1047420";
  to "nd_m1047423";
  phases A;
  length 165.5714;
  configuration "lcon_1ph-4_acsrxx4_acsr_A";
}
object triplex_line {
  name "tpx_tpx247184c0";
  from "nd_sx2936279c";
  to "nd_x2936279c";
  phases CS;
  length 50.0009;
  configuration "tcon_4/0triplex_12";
}
object overhead_line {
  name "line_ln5686080-1";
  from "nd_p827580";
  to "nd_d5686080-1_int";
  phases ABC;
  length 26.2795;
  configuration "lcon_3ph_h-4_acsr4_acsr4_acsr4_acsr_ABC";
}
object triplex_line {
  name "tpx_tpx2224237546a0";
  from "nd_x3649300a";
  to "nd_sx3649300a";
  phases AS;
  length 50.0009;
  configuration "tcon_4/0triplex_12";
}
object triplex_line {
  name "tpx_tpx391751b0";
  from "nd_x2860488b";
  to "nd_sx2860488b";
  phases BS;
  length 50.0009;
  configuration "tcon_4/0triplex_12";
}
object overhead_line {
  name "line_ln5502557-1";
  from "nd_l3085410";
  to "nd_m1069555";
  phases B;
  length 158.7364;
  configuration "lcon_1ph-x2_acsrx2_acsr_B";
}
object overhead_line {
  name "line_ln6015794-1";
  from "nd_m1089205";
  to "nd_m1089200";
  phases A;
  length 201.2216;
  configuration "lcon_1ph-4_wpalxx4_wpal_A";
}
object overhead_line {
  name "line_ln6077779-1";
  from "nd_m1089132";
  to "nd_l3029503";
  phases C;
  length 154.2124;
  configuration "lcon_1ph-xx4_wpal4_wpal_C";
}
object overhead_line {
  name "line_ln5593237-1";
  from "nd_l3104131";
  to "nd_m1026366";
  phases A;
  length 307.2786;
  configuration "lcon_1ph-4_wpalxx4_acsr_A";
}
object overhead_line {
  name "line_ln5744343-3";
  from "nd_m1026335";
  to "nd_n1145955";
  phases A;
  length 44.7310;
  configuration "lcon_1ph-2_acsrxx2_acsr_A";
}
object overhead_line {
  name "line_ln5989328-1";
  from "nd_p829974";
  to "nd_l2805034";
  phases A;
  length 217.0764;
  configuration "lcon_1ph-4_acsrxx4_acsr_A";
}
object overhead_line {
  name "line_ln6380827-1";
  from "nd_m1026468";
  to "nd_l2766732";
  phases B;
  length 307.9317;
  configuration "lcon_1ph-x2_acsrx2_acsr_B";
}
object overhead_line {
  name "line_ln5954962-1";
  from "nd_m1047769";
  to "nd_l3197632";
  phases B;
  length 536.6376;
  configuration "lcon_1ph-x4_acsrx4_acsr_B";
}
object overhead_line {
  name "line_ln5744343-2";
  from "nd_m1026333";
  to "nd_n1145955";
  phases A;
  length 45.1801;
  configuration "lcon_1ph-2_acsrxx2_acsr_A";
}
object overhead_line {
  name "line_ln5804808-1";
  from "nd_l3010563";
  to "nd_m1009715";
  phases A;
  length 168.9360;
  configuration "lcon_1ph-2_acsrxx1/0_tpx_A";
}
object overhead_line {
  name "line_ln5625547-1";
  from "nd_p827521";
  to "nd_m1089119";
  phases B;
  length 22.3478;
  configuration "lcon_1ph-x4_acsrx4_acsr_B";
}
object overhead_line {
  name "line_ln5926295-1";
  from "nd_l3216343";
  to "nd_m1089165";
  phases C;
  length 502.0201;
  configuration "lcon_1ph-xx4_acsr4_acsr_C";
}
object overhead_line {
  name "line_ln5837356-1";
  from "nd_m1047325";
  to "nd_p827532";
  phases A;
  length 31.5977;
  configuration "lcon_1ph-2_acsrxx2_acsr_A";
}
object overhead_line {
  name "line_ln6229790-1";
  from "nd_m1089188";
  to "nd_m1089189";
  phases C;
  length 217.5841;
  configuration "lcon_1ph-xx4_wpal4_wpal_C";
}
object overhead_line {
  name "line_ln5654476-1";
  from "nd_l2861222";
  to "nd_l2917330";
  phases A;
  length 293.7519;
  configuration "lcon_1ph-4_acsrxx4_acsr_A";
}
object overhead_line {
  name "line_ln5653469-1";
  from "nd_l3178981";
  to "nd_l3066818";
  phases B;
  length 196.0990;
  configuration "lcon_1ph-x4_acsrx4_acsr_B";
}
object overhead_line {
  name "line_ln5803262-1";
  from "nd_p901913";
  to "nd_l3157708";
  phases C;
  length 75.8170;
  configuration "lcon_1ph-xx4_acsr4_acsr_C";
}
object overhead_line {
  name "line_ln5926305-1";
  from "nd_l2841630";
  to "nd_l2954352";
  phases C;
  length 93.0983;
  configuration "lcon_1ph-xx2_acsr2_acsr_C";
}
object overhead_line {
  name "line_ln5895804-1";
  from "nd_m1069513";
  to "nd_m1069516";
  phases ABC;
  length 288.9146;
  configuration "lcon_3ph_h-397_acsr397_acsr397_acsr2/0_acsr_ABC";
}
object triplex_line {
  name "tpx_tpx294810a0";
  from "nd_sx3010585a";
  to "nd_x3010585a";
  phases AS;
  length 50.0009;
  configuration "tcon_4/0triplex_12";
}
object triplex_line {
  name "tpx_tpx2224237653a0";
  from "nd_x3649302a";
  to "nd_sx3649302a";
  phases AS;
  length 50.0009;
  configuration "tcon_4/0triplex_12";
}
object overhead_line {
  name "line_ln6229800-1";
  from "nd_m1026647";
  to "nd_m1026648";
  phases A;
  length 171.3352;
  configuration "lcon_1ph-4_acsrxx4_acsr_A";
}
object overhead_line {
  name "line_ln5562930-1";
  from "nd_m1069192";
  to "nd_l2991913";
  phases A;
  length 303.5370;
  configuration "lcon_1ph-4_acsrxx4_acsr_A";
}
object overhead_line {
  name "line_ln5803262-6";
  from "nd_m4113345";
  to "nd_l3197640";
  phases C;
  length 264.5618;
  configuration "lcon_1ph-xx4_acsr4_acsr_C";
}
object overhead_line {
  name "line_ln6047567-1";
  from "nd_l2954349";
  to "nd_m1047447";
  phases B;
  length 175.3796;
  configuration "lcon_1ph-x4_wpalx4_wpal_B";
}
object overhead_line {
  name "line_ln5803262-7";
  from "nd_n1137991";
  to "nd_l3157708";
  phases C;
  length 46.3646;
  configuration "lcon_1ph-xx4_acsr4_acsr_C";
}
...